49
XYZ file generated by orca_plot on BaseName=Cu_tmtaa
Cu      15.00013734      13.00007439      14.51977922
N      16.44691659      14.29752732      14.46712398
N      13.56379701      14.31009674      14.46633625
N      13.55317020      11.70251464      14.46724032
N      16.43621064      11.68986798      14.46603204
C      16.28378295      15.47410298      13.87782861
C      15.01294614      16.00381471      13.59120464
C      13.73740386      15.48542785      13.87749673
C      12.36332226      13.72428704      14.88083745
C      11.26620579      14.40541268      15.40941335
C      10.16196918      13.71440314      15.89549923
C      10.15681362      12.32625293      15.89678764
C      11.25585078      11.62635994      15.41177749
C      12.35767746      12.29854678      14.88169669
C      13.71612834      10.52596189      13.87788391
C      14.98689078       9.99613475      13.59117318
C      16.26247407      10.51445580      13.87736226
C      17.63667678      12.27563285      14.88062190
C      18.73367499      11.59444523      15.40936089
C      19.83785628      12.28538035      15.89565849
C      19.84309770      13.67352581      15.89698124
C      18.74417877      14.37349129      15.41180228
C      17.64238740      13.70139599      14.88153934
C      17.46819114      16.28731918      13.40838815
C      12.56044482      16.30895232      13.40752696
C      12.53157519       9.71285151      13.40857125
C      17.43932343       9.69071197      13.40750313
H      15.01719855      16.94493104      13.06166838
H      11.28839112      15.48154639      15.48366739
H       9.32450676      14.26527882      16.30377007
H       9.31540107      11.78234673      16.30628585
H      11.27023125      10.55020715      15.48781778
H      14.98253346       9.05497934      13.06169892
H      18.71139144      10.51831628      15.48360158
H      20.67518805      11.73444080      16.30410957
H      20.68444251      14.21736909      16.30668069
H      18.72981072      15.44963074      15.48791122
H      18.29293824      15.64384557      13.10474301
H      17.83736610      16.95130538      14.19313430
H      17.17376328      16.91160393      12.56649970
H      11.73089313      15.67265320      13.10170651
H      12.19538784      16.97494508      14.19250966
H      12.86118888      16.93185996      12.56683921
H      12.82581426       9.08870888      12.56651212
H      11.70677280      10.35639192      13.10521124
H      12.16253184       9.04872800      14.19326877
H      17.13848496       9.06775285      12.56688213
H      18.26898003      10.32682895      13.10162354
H      17.80423356       9.02474022      14.19257260

